[board]
type=System
children=cache_hierarchy clk_domain dvfs_handler memory processor workload
auto_unlink_shared_backstore=false
cache_line_size=64
eventq_index=0
exit_on_work_items=true
external_memory_ranges=
init_param=0
m5ops_base=4294901760
mem_mode=timing
mem_ranges=0:2147483648
memories=board.memory.mem_ctrl.dram
mmap_using_noreserve=false
multi_thread=false
num_work_ids=16
readfile=
redirect_paths=
shadow_rom_ranges=
shared_backstore=
symbolfile=
thermal_components=
thermal_model=Null
work_begin_ckpt_count=0
work_begin_cpu_id_exit=-1
work_begin_exit_count=0
work_cpus_ckpt_count=0
work_end_ckpt_count=0
work_end_exit_count=0
work_item_id=-1
workload=board.workload
system_port=board.cache_hierarchy.membus.cpu_side_ports[0]

[board.cache_hierarchy]
type=SubSystem
children=l1d-cache-0 l1i-cache-0 l2-cache-0 l2buses membus
eventq_index=0
thermal_domain=Null

[board.cache_hierarchy.l1d-cache-0]
type=Cache
children=power_state prefetcher replacement_policy tags
addr_ranges=0:18446744073709551615
assoc=8
clk_domain=board.clk_domain
clusivity=mostly_incl
compressor=Null
data_latency=1
demand_mshr_reserve=1
eventq_index=0
is_read_only=false
max_miss_count=0
move_contractions=true
mshrs=16
partitioning_manager=Null
power_model=
power_state=board.cache_hierarchy.l1d-cache-0.power_state
prefetcher=board.cache_hierarchy.l1d-cache-0.prefetcher
replace_expansions=true
replacement_policy=board.cache_hierarchy.l1d-cache-0.replacement_policy
response_latency=1
sequential_access=false
size=32768
system=board
tag_latency=1
tags=board.cache_hierarchy.l1d-cache-0.tags
tgts_per_mshr=20
warmup_percentage=0
write_allocator=Null
write_buffers=8
writeback_clean=false
cpu_side=board.processor.cores.core.dcache_port
mem_side=board.cache_hierarchy.l2buses.cpu_side_ports[1]

[board.cache_hierarchy.l1d-cache-0.power_state]
type=PowerState
clk_gate_bins=20
clk_gate_max=1000000000000
clk_gate_min=1000
default_state=UNDEFINED
eventq_index=0
leaders=
possible_states=

[board.cache_hierarchy.l1d-cache-0.prefetcher]
type=StridePrefetcher
children=power_state table_indexing_policy table_replacement_policy
block_size=64
cache_snoop=false
clk_domain=board.clk_domain
confidence_counter_bits=3
confidence_threshold=50
degree=4
distance=0
eventq_index=0
initial_confidence=4
latency=1
max_prefetch_requests_with_pending_translation=32
on_data=true
on_inst=false
on_miss=false
on_read=true
on_write=true
page_bytes=4096
power_model=
power_state=board.cache_hierarchy.l1d-cache-0.prefetcher.power_state
prefetch_on_access=false
prefetch_on_pf_hit=true
queue_filter=true
queue_size=32
queue_squash=true
sys=board
table_assoc=4
table_entries=64
table_indexing_policy=board.cache_hierarchy.l1d-cache-0.prefetcher.table_indexing_policy
table_replacement_policy=board.cache_hierarchy.l1d-cache-0.prefetcher.table_replacement_policy
tag_prefetch=true
throttle_control_percentage=0
use_cache_line_address=true
use_requestor_id=true
use_virtual_addresses=false

[board.cache_hierarchy.l1d-cache-0.prefetcher.power_state]
type=PowerState
clk_gate_bins=20
clk_gate_max=1000000000000
clk_gate_min=1000
default_state=UNDEFINED
eventq_index=0
leaders=
possible_states=

[board.cache_hierarchy.l1d-cache-0.prefetcher.table_indexing_policy]
type=StridePrefetcherHashedSetAssociative
assoc=4
entry_size=1
eventq_index=0
size=64

[board.cache_hierarchy.l1d-cache-0.prefetcher.table_replacement_policy]
type=RandomRP
eventq_index=0

[board.cache_hierarchy.l1d-cache-0.replacement_policy]
type=LRURP
eventq_index=0

[board.cache_hierarchy.l1d-cache-0.tags]
type=BaseSetAssoc
children=indexing_policy power_state
assoc=8
block_size=64
clk_domain=board.clk_domain
entry_size=64
eventq_index=0
indexing_policy=board.cache_hierarchy.l1d-cache-0.tags.indexing_policy
partitioning_manager=Null
power_model=
power_state=board.cache_hierarchy.l1d-cache-0.tags.power_state
replacement_policy=board.cache_hierarchy.l1d-cache-0.replacement_policy
sequential_access=false
size=32768
system=board
tag_latency=1
warmup_percentage=0

[board.cache_hierarchy.l1d-cache-0.tags.indexing_policy]
type=TaggedSetAssociative
assoc=8
entry_size=64
eventq_index=0
size=32768

[board.cache_hierarchy.l1d-cache-0.tags.power_state]
type=PowerState
clk_gate_bins=20
clk_gate_max=1000000000000
clk_gate_min=1000
default_state=UNDEFINED
eventq_index=0
leaders=
possible_states=

[board.cache_hierarchy.l1i-cache-0]
type=Cache
children=power_state prefetcher replacement_policy tags
addr_ranges=0:18446744073709551615
assoc=8
clk_domain=board.clk_domain
clusivity=mostly_incl
compressor=Null
data_latency=1
demand_mshr_reserve=1
eventq_index=0
is_read_only=false
max_miss_count=0
move_contractions=true
mshrs=16
partitioning_manager=Null
power_model=
power_state=board.cache_hierarchy.l1i-cache-0.power_state
prefetcher=board.cache_hierarchy.l1i-cache-0.prefetcher
replace_expansions=true
replacement_policy=board.cache_hierarchy.l1i-cache-0.replacement_policy
response_latency=1
sequential_access=false
size=32768
system=board
tag_latency=1
tags=board.cache_hierarchy.l1i-cache-0.tags
tgts_per_mshr=20
warmup_percentage=0
write_allocator=Null
write_buffers=8
writeback_clean=true
cpu_side=board.processor.cores.core.icache_port
mem_side=board.cache_hierarchy.l2buses.cpu_side_ports[0]

[board.cache_hierarchy.l1i-cache-0.power_state]
type=PowerState
clk_gate_bins=20
clk_gate_max=1000000000000
clk_gate_min=1000
default_state=UNDEFINED
eventq_index=0
leaders=
possible_states=

[board.cache_hierarchy.l1i-cache-0.prefetcher]
type=StridePrefetcher
children=power_state table_indexing_policy table_replacement_policy
block_size=64
cache_snoop=false
clk_domain=board.clk_domain
confidence_counter_bits=3
confidence_threshold=50
degree=4
distance=0
eventq_index=0
initial_confidence=4
latency=1
max_prefetch_requests_with_pending_translation=32
on_data=true
on_inst=false
on_miss=false
on_read=true
on_write=true
page_bytes=4096
power_model=
power_state=board.cache_hierarchy.l1i-cache-0.prefetcher.power_state
prefetch_on_access=false
prefetch_on_pf_hit=true
queue_filter=true
queue_size=32
queue_squash=true
sys=board
table_assoc=4
table_entries=64
table_indexing_policy=board.cache_hierarchy.l1i-cache-0.prefetcher.table_indexing_policy
table_replacement_policy=board.cache_hierarchy.l1i-cache-0.prefetcher.table_replacement_policy
tag_prefetch=true
throttle_control_percentage=0
use_cache_line_address=true
use_requestor_id=true
use_virtual_addresses=false

[board.cache_hierarchy.l1i-cache-0.prefetcher.power_state]
type=PowerState
clk_gate_bins=20
clk_gate_max=1000000000000
clk_gate_min=1000
default_state=UNDEFINED
eventq_index=0
leaders=
possible_states=

[board.cache_hierarchy.l1i-cache-0.prefetcher.table_indexing_policy]
type=StridePrefetcherHashedSetAssociative
assoc=4
entry_size=1
eventq_index=0
size=64

[board.cache_hierarchy.l1i-cache-0.prefetcher.table_replacement_policy]
type=RandomRP
eventq_index=0

[board.cache_hierarchy.l1i-cache-0.replacement_policy]
type=LRURP
eventq_index=0

[board.cache_hierarchy.l1i-cache-0.tags]
type=BaseSetAssoc
children=indexing_policy power_state
assoc=8
block_size=64
clk_domain=board.clk_domain
entry_size=64
eventq_index=0
indexing_policy=board.cache_hierarchy.l1i-cache-0.tags.indexing_policy
partitioning_manager=Null
power_model=
power_state=board.cache_hierarchy.l1i-cache-0.tags.power_state
replacement_policy=board.cache_hierarchy.l1i-cache-0.replacement_policy
sequential_access=false
size=32768
system=board
tag_latency=1
warmup_percentage=0

[board.cache_hierarchy.l1i-cache-0.tags.indexing_policy]
type=TaggedSetAssociative
assoc=8
entry_size=64
eventq_index=0
size=32768

[board.cache_hierarchy.l1i-cache-0.tags.power_state]
type=PowerState
clk_gate_bins=20
clk_gate_max=1000000000000
clk_gate_min=1000
default_state=UNDEFINED
eventq_index=0
leaders=
possible_states=

[board.cache_hierarchy.l2-cache-0]
type=Cache
children=power_state prefetcher replacement_policy tags
addr_ranges=0:18446744073709551615
assoc=16
clk_domain=board.clk_domain
clusivity=mostly_incl
compressor=Null
data_latency=10
demand_mshr_reserve=1
eventq_index=0
is_read_only=false
max_miss_count=0
move_contractions=true
mshrs=20
partitioning_manager=Null
power_model=
power_state=board.cache_hierarchy.l2-cache-0.power_state
prefetcher=board.cache_hierarchy.l2-cache-0.prefetcher
replace_expansions=true
replacement_policy=board.cache_hierarchy.l2-cache-0.replacement_policy
response_latency=1
sequential_access=false
size=262144
system=board
tag_latency=10
tags=board.cache_hierarchy.l2-cache-0.tags
tgts_per_mshr=12
warmup_percentage=0
write_allocator=Null
write_buffers=8
writeback_clean=false
cpu_side=board.cache_hierarchy.l2buses.mem_side_ports[0]
mem_side=board.cache_hierarchy.membus.cpu_side_ports[1]

[board.cache_hierarchy.l2-cache-0.power_state]
type=PowerState
clk_gate_bins=20
clk_gate_max=1000000000000
clk_gate_min=1000
default_state=UNDEFINED
eventq_index=0
leaders=
possible_states=

[board.cache_hierarchy.l2-cache-0.prefetcher]
type=StridePrefetcher
children=power_state table_indexing_policy table_replacement_policy
block_size=64
cache_snoop=false
clk_domain=board.clk_domain
confidence_counter_bits=3
confidence_threshold=50
degree=4
distance=0
eventq_index=0
initial_confidence=4
latency=1
max_prefetch_requests_with_pending_translation=32
on_data=true
on_inst=false
on_miss=false
on_read=true
on_write=true
page_bytes=4096
power_model=
power_state=board.cache_hierarchy.l2-cache-0.prefetcher.power_state
prefetch_on_access=false
prefetch_on_pf_hit=true
queue_filter=true
queue_size=32
queue_squash=true
sys=board
table_assoc=4
table_entries=64
table_indexing_policy=board.cache_hierarchy.l2-cache-0.prefetcher.table_indexing_policy
table_replacement_policy=board.cache_hierarchy.l2-cache-0.prefetcher.table_replacement_policy
tag_prefetch=true
throttle_control_percentage=0
use_cache_line_address=true
use_requestor_id=true
use_virtual_addresses=false

[board.cache_hierarchy.l2-cache-0.prefetcher.power_state]
type=PowerState
clk_gate_bins=20
clk_gate_max=1000000000000
clk_gate_min=1000
default_state=UNDEFINED
eventq_index=0
leaders=
possible_states=

[board.cache_hierarchy.l2-cache-0.prefetcher.table_indexing_policy]
type=StridePrefetcherHashedSetAssociative
assoc=4
entry_size=1
eventq_index=0
size=64

[board.cache_hierarchy.l2-cache-0.prefetcher.table_replacement_policy]
type=RandomRP
eventq_index=0

[board.cache_hierarchy.l2-cache-0.replacement_policy]
type=LRURP
eventq_index=0

[board.cache_hierarchy.l2-cache-0.tags]
type=BaseSetAssoc
children=indexing_policy power_state
assoc=16
block_size=64
clk_domain=board.clk_domain
entry_size=64
eventq_index=0
indexing_policy=board.cache_hierarchy.l2-cache-0.tags.indexing_policy
partitioning_manager=Null
power_model=
power_state=board.cache_hierarchy.l2-cache-0.tags.power_state
replacement_policy=board.cache_hierarchy.l2-cache-0.replacement_policy
sequential_access=false
size=262144
system=board
tag_latency=10
warmup_percentage=0

[board.cache_hierarchy.l2-cache-0.tags.indexing_policy]
type=TaggedSetAssociative
assoc=16
entry_size=64
eventq_index=0
size=262144

[board.cache_hierarchy.l2-cache-0.tags.power_state]
type=PowerState
clk_gate_bins=20
clk_gate_max=1000000000000
clk_gate_min=1000
default_state=UNDEFINED
eventq_index=0
leaders=
possible_states=

[board.cache_hierarchy.l2buses]
type=CoherentXBar
children=power_state snoop_filter
clk_domain=board.clk_domain
eventq_index=0
forward_latency=0
frontend_latency=1
header_latency=1
max_outstanding_snoops=512
max_routing_table_size=512
point_of_coherency=false
point_of_unification=true
power_model=
power_state=board.cache_hierarchy.l2buses.power_state
response_latency=1
snoop_filter=board.cache_hierarchy.l2buses.snoop_filter
snoop_response_latency=1
system=board
use_default_range=false
width=32
cpu_side_ports=board.cache_hierarchy.l1i-cache-0.mem_side board.cache_hierarchy.l1d-cache-0.mem_side board.processor.cores.core.mmu.itb.walker.port board.processor.cores.core.mmu.dtb.walker.port
mem_side_ports=board.cache_hierarchy.l2-cache-0.cpu_side

[board.cache_hierarchy.l2buses.power_state]
type=PowerState
clk_gate_bins=20
clk_gate_max=1000000000000
clk_gate_min=1000
default_state=UNDEFINED
eventq_index=0
leaders=
possible_states=

[board.cache_hierarchy.l2buses.snoop_filter]
type=SnoopFilter
eventq_index=0
lookup_latency=0
max_capacity=8388608
system=board

[board.cache_hierarchy.membus]
type=CoherentXBar
children=badaddr_responder power_state snoop_filter
clk_domain=board.clk_domain
eventq_index=0
forward_latency=4
frontend_latency=3
header_latency=1
max_outstanding_snoops=512
max_routing_table_size=512
point_of_coherency=true
point_of_unification=true
power_model=
power_state=board.cache_hierarchy.membus.power_state
response_latency=2
snoop_filter=board.cache_hierarchy.membus.snoop_filter
snoop_response_latency=4
system=board
use_default_range=false
width=64
cpu_side_ports=board.system_port board.cache_hierarchy.l2-cache-0.mem_side
default=board.cache_hierarchy.membus.badaddr_responder.pio
mem_side_ports=board.memory.mem_ctrl.port

[board.cache_hierarchy.membus.badaddr_responder]
type=IsaFake
children=power_state
clk_domain=board.clk_domain
eventq_index=0
fake_mem=false
pio_addr=0
pio_latency=100000
pio_size=8
power_model=
power_state=board.cache_hierarchy.membus.badaddr_responder.power_state
ret_bad_addr=true
ret_data16=65535
ret_data32=4294967295
ret_data64=18446744073709551615
ret_data8=255
system=board
update_data=false
warn_access=
pio=board.cache_hierarchy.membus.default

[board.cache_hierarchy.membus.badaddr_responder.power_state]
type=PowerState
clk_gate_bins=20
clk_gate_max=1000000000000
clk_gate_min=1000
default_state=UNDEFINED
eventq_index=0
leaders=
possible_states=

[board.cache_hierarchy.membus.power_state]
type=PowerState
clk_gate_bins=20
clk_gate_max=1000000000000
clk_gate_min=1000
default_state=UNDEFINED
eventq_index=0
leaders=
possible_states=

[board.cache_hierarchy.membus.snoop_filter]
type=SnoopFilter
eventq_index=0
lookup_latency=1
max_capacity=8388608
system=board

[board.clk_domain]
type=SrcClockDomain
children=voltage_domain
clock=1000
domain_id=-1
eventq_index=0
init_perf_level=0
voltage_domain=board.clk_domain.voltage_domain

[board.clk_domain.voltage_domain]
type=VoltageDomain
eventq_index=0
voltage=1.0

[board.dvfs_handler]
type=DVFSHandler
domains=
enable=false
eventq_index=0
sys_clk_domain=board.clk_domain
transition_latency=100000000

[board.memory]
type=SubSystem
children=mem_ctrl
eventq_index=0
thermal_domain=Null

[board.memory.mem_ctrl]
type=MemCtrl
children=dram power_state
clk_domain=board.clk_domain
command_window=10000
disable_sanity_check=false
dram=board.memory.mem_ctrl.dram
eventq_index=0
mem_sched_policy=frfcfs
min_reads_per_switch=16
min_writes_per_switch=16
power_model=
power_state=board.memory.mem_ctrl.power_state
qos_policy=Null
qos_priorities=1
qos_priority_escalation=false
qos_q_policy=fifo
qos_requestors=               
qos_syncro_scheduler=false
qos_turnaround_policy=Null
static_backend_latency=10000
static_frontend_latency=10000
system=board
write_high_thresh_perc=85
write_low_thresh_perc=50
port=board.cache_hierarchy.membus.mem_side_ports[0]

[board.memory.mem_ctrl.dram]
type=DRAMInterface
children=power_state
IDD0=0.055
IDD02=0.0
IDD2N=0.032
IDD2N2=0.0
IDD2P0=0.0
IDD2P02=0.0
IDD2P1=0.032
IDD2P12=0.0
IDD3N=0.038
IDD3N2=0.0
IDD3P0=0.0
IDD3P02=0.0
IDD3P1=0.038
IDD3P12=0.0
IDD4R=0.157
IDD4R2=0.0
IDD4W=0.125
IDD4W2=0.0
IDD5=0.23500000000000001
IDD52=0.0
IDD6=0.02
IDD62=0.0
VDD=1.5
VDD2=0.0
activation_limit=4
addr_mapping=RoRaBaCoCh
bank_groups_per_rank=0
banks_per_rank=8
beats_per_clock=2
burst_length=8
clk_domain=board.clk_domain
collect_stats=true
conf_table_reported=true
data_clock_sync=false
device_bus_width=8
device_rowbuffer_size=1024
device_size=536870912
devices_per_rank=8
dll=true
enable_dram_powerdown=false
eventq_index=0
image_file=
in_addr_map=true
kvm_map=true
max_accesses_per_row=16
null=false
page_policy=open_adaptive
power_model=
power_state=board.memory.mem_ctrl.dram.power_state
range=0:2147483648
ranks_per_channel=2
read_buffer_size=32
tAAD=1250
tBURST=5000
tBURST_MAX=5000
tBURST_MIN=5000
tCCD_L=0
tCCD_L_WR=0
tCK=1250
tCL=13750
tCS=2500
tCWL=13750
tPPD=0
tRAS=35000
tRCD=13750
tRCD_WR=13750
tREFI=7800000
tRFC=260000
tRP=13750
tRRD=6000
tRRD_L=0
tRTP=7500
tRTW=2500
tWR=15000
tWTR=7500
tWTR_L=7500
tXAW=30000
tXP=6000
tXPDLL=0
tXS=270000
tXSDLL=0
two_cycle_activate=false
write_buffer_size=64
writeable=true

[board.memory.mem_ctrl.dram.power_state]
type=PowerState
clk_gate_bins=20
clk_gate_max=1000000000000
clk_gate_min=1000
default_state=UNDEFINED
eventq_index=0
leaders=
possible_states=

[board.memory.mem_ctrl.power_state]
type=PowerState
clk_gate_bins=20
clk_gate_max=1000000000000
clk_gate_min=1000
default_state=UNDEFINED
eventq_index=0
leaders=
possible_states=

[board.processor]
type=SubSystem
children=cores
eventq_index=0
thermal_domain=Null

[board.processor.cores]
type=SubSystem
children=core
eventq_index=0
thermal_domain=Null

[board.processor.cores.core]
type=BaseTimingSimpleCPU
children=decoder interrupts isa mmu power_state tracer workload
branchPred=Null
checker=Null
clk_domain=board.clk_domain
cpu_id=0
decoder=board.processor.cores.core.decoder
do_checkpoint_insts=true
do_statistics_insts=true
eventq_index=0
function_trace=false
function_trace_start=0
interrupts=board.processor.cores.core.interrupts
isa=board.processor.cores.core.isa
max_insts_all_threads=0
max_insts_any_thread=0
mmu=board.processor.cores.core.mmu
numThreads=1
power_gating_on_idle=false
power_model=
power_state=board.processor.cores.core.power_state
progress_interval=0
pwr_gating_latency=300
simpoint_start_insts=
socket_id=0
switched_out=false
syscallRetryLatency=10000
system=board
tracer=board.processor.cores.core.tracer
workload=board.processor.cores.core.workload
dcache_port=board.cache_hierarchy.l1d-cache-0.cpu_side
icache_port=board.cache_hierarchy.l1i-cache-0.cpu_side

[board.processor.cores.core.decoder]
type=RiscvDecoder
eventq_index=0
isa=board.processor.cores.core.isa

[board.processor.cores.core.interrupts]
type=RiscvInterrupts
eventq_index=0
local_interrupt_ids=
nmi_cause=0

[board.processor.cores.core.isa]
type=RiscvISA
elen=64
enable_Smrnmi=false
enable_Zcd=true
enable_Zicbom_fs=true
enable_Zicboz_fs=true
enable_rvv=true
eventq_index=0
privilege_mode_set=MSU
riscv_type=RV64
vlen=256
wfi_resume_on_pending=false

[board.processor.cores.core.mmu]
type=RiscvMMU
children=dtb itb pma_checker pmp
dtb=board.processor.cores.core.mmu.dtb
eventq_index=0
itb=board.processor.cores.core.mmu.itb
pma_checker=board.processor.cores.core.mmu.pma_checker
pmp=board.processor.cores.core.mmu.pmp

[board.processor.cores.core.mmu.dtb]
type=RiscvTLB
children=walker
entry_type=data
eventq_index=0
next_level=Null
pma_checker=board.processor.cores.core.mmu.pma_checker
pmp=board.processor.cores.core.mmu.pmp
size=64
walker=board.processor.cores.core.mmu.dtb.walker

[board.processor.cores.core.mmu.dtb.walker]
type=RiscvPagetableWalker
children=power_state
clk_domain=board.clk_domain
eventq_index=0
num_squash_per_cycle=4
pma_checker=board.processor.cores.core.mmu.pma_checker
pmp=board.processor.cores.core.mmu.pmp
power_model=
power_state=board.processor.cores.core.mmu.dtb.walker.power_state
system=board
port=board.cache_hierarchy.l2buses.cpu_side_ports[3]

[board.processor.cores.core.mmu.dtb.walker.power_state]
type=PowerState
clk_gate_bins=20
clk_gate_max=1000000000000
clk_gate_min=1000
default_state=UNDEFINED
eventq_index=0
leaders=
possible_states=

[board.processor.cores.core.mmu.itb]
type=RiscvTLB
children=walker
entry_type=instruction
eventq_index=0
next_level=Null
pma_checker=board.processor.cores.core.mmu.pma_checker
pmp=board.processor.cores.core.mmu.pmp
size=64
walker=board.processor.cores.core.mmu.itb.walker

[board.processor.cores.core.mmu.itb.walker]
type=RiscvPagetableWalker
children=power_state
clk_domain=board.clk_domain
eventq_index=0
num_squash_per_cycle=4
pma_checker=board.processor.cores.core.mmu.pma_checker
pmp=board.processor.cores.core.mmu.pmp
power_model=
power_state=board.processor.cores.core.mmu.itb.walker.power_state
system=board
port=board.cache_hierarchy.l2buses.cpu_side_ports[2]

[board.processor.cores.core.mmu.itb.walker.power_state]
type=PowerState
clk_gate_bins=20
clk_gate_max=1000000000000
clk_gate_min=1000
default_state=UNDEFINED
eventq_index=0
leaders=
possible_states=

[board.processor.cores.core.mmu.pma_checker]
type=PMAChecker
eventq_index=0
misaligned=
uncacheable=

[board.processor.cores.core.mmu.pmp]
type=PMP
eventq_index=0
pmp_entries=16

[board.processor.cores.core.power_state]
type=PowerState
clk_gate_bins=20
clk_gate_max=1000000000000
clk_gate_min=1000
default_state=UNDEFINED
eventq_index=0
leaders=
possible_states=ON CLK_GATED OFF

[board.processor.cores.core.tracer]
type=ExeTracer
children=disassembler
disassembler=board.processor.cores.core.tracer.disassembler
eventq_index=0

[board.processor.cores.core.tracer.disassembler]
type=InstDisassembler
eventq_index=0

[board.processor.cores.core.workload]
type=Process
cmd=/home/ajno5/work/2_pattern/dgemm/dgemm_riscv
cwd=/home/ajno5/work/2_pattern/dgemm
drivers=
egid=100
env=
errout=cerr
euid=100
eventq_index=0
executable=/home/ajno5/work/2_pattern/dgemm/dgemm_riscv
gid=100
input=cin
kvmInSE=false
maxStackSize=67108864
output=cout
pgid=100
pid=100
ppid=0
release=5.1.0
simpoint=0
system=board
uid=100
useArchPT=false
zeroPages=true

[board.workload]
type=RiscvEmuLinux
eventq_index=0
remote_gdb_port=#7000
wait_for_remote_gdb=false

[root]
type=Root
children=board
eventq_index=0
full_system=false
sim_quantum=0
time_sync_enable=false
time_sync_period=100000000000
time_sync_spin_threshold=100000000

